FK Computation Tool
===================
Input file: data/942_ilp_deg3.csv
Output file: out.json
Threads: 1

Starting FK computation...
Processing 15 points with 1 threads using OpenMP
Angle: 0, 0, 0, 0, 0, 0, 0, 0, 0
Relation type: 2
i: -1
j: 0
ip: -1
jp: 0
Crossing Factor: Multivariable Polynomial P(q, x1):
1*q^0 + 1*q^0*x1 + 1*q^0*x1^2
Relation type: 3
i: 0
j: -1
ip: 0
jp: -1
Crossing Factor: Multivariable Polynomial P(q, x1):
1*q^0 + 1*q^0*x1 + 1*q^0*x1^2
Relation type: 2
i: -1
j: 0
ip: -1
jp: 0
Crossing Factor: Multivariable Polynomial P(q, x1):
1*q^0 + 1*q^0*x1 + 1*q^0*x1^2
Relation type: 4
i: -1
j: 0
ip: 0
jp: -1
Crossing Factor: Multivariable Polynomial P(q, x1):
1*q^0
Relation type: 4
i: 0
j: -1
ip: -1
jp: 0
Crossing Factor: Multivariable Polynomial P(q, x1):
1*q^0
Relation type: 3
i: 0
j: -1
ip: 0
jp: -1
Crossing Factor: Multivariable Polynomial P(q, x1):
1*q^0 + 1*q^0*x1 + 1*q^0*x1^2
Relation type: 2
i: -1
j: 0
ip: -1
jp: 0
Crossing Factor: Multivariable Polynomial P(q, x1):
1*q^0 + 1*q^0*x1 + 1*q^0*x1^2
Relation type: 2
i: -1
j: 0
ip: -1
jp: 0
Crossing Factor: Multivariable Polynomial P(q, x1):
1*q^0 + 1*q^0*x1 + 1*q^0*x1^2
Relation type: 2
i: -1
j: 0
ip: -1
jp: 0
Crossing Factor: Multivariable Polynomial P(q, x1):
1*q^0 + 1*q^0*x1 + 1*q^0*x1^2
Angle result: Multivariable Polynomial P(q, x1):
1*q^0 + 7*q^0*x1 + 28*q^0*x1^2
Angle Contribution: Multivariable Polynomial P(q, x1):
1*q^1*x1 + 7*q^1*x1^2 + 28*q^1*x1^3
==========================





Processing point 0/15
Angle: 0, 0, 0, 1, 0, 0, 0, 0, 1
Relation type: 2
i: -1
j: 0
ip: -1
jp: 0
Crossing Factor: Multivariable Polynomial P(q, x1):
1*q^0 + 1*q^0*x1
Relation type: 3
i: 0
j: -1
ip: 0
jp: -1
Crossing Factor: Multivariable Polynomial P(q, x1):
1*q^0 + 1*q^0*x1
Relation type: 2
i: -1
j: 0
ip: -1
jp: 0
Crossing Factor: Multivariable Polynomial P(q, x1):
1*q^0 + 1*q^0*x1
Relation type: 4
i: -1
j: 0
ip: 0
jp: -1
Crossing Factor: Multivariable Polynomial P(q, x1):
1*q^0
Relation type: 4
i: 0
j: -1
ip: -2
jp: 1
Crossing Factor: Multivariable Polynomial P(q, x1):
-1*q^1 + 1*q^2*x1
Relation type: 3
i: 0
j: -2
ip: 0
jp: -2
Crossing Factor: Multivariable Polynomial P(q, x1):
1*q^0 + 1*q^-1*x1 + 1*q^0*x1
Relation type: 2
i: -2
j: 1
ip: -1
jp: 0
Crossing Factor: Multivariable Polynomial P(q, x1):
1*q^0 + 1*q^0*x1 + 1*q^1*x1
Relation type: 2
i: -1
j: 0
ip: -1
jp: 0
Crossing Factor: Multivariable Polynomial P(q, x1):
1*q^0 + 1*q^0*x1
Relation type: 2
i: -1
j: 0
ip: -1
jp: 0
Crossing Factor: Multivariable Polynomial P(q, x1):
1*q^0 + 1*q^0*x1
Angle result: Multivariable Polynomial P(q, x1):
-1*q^1 + -1*q^0*x1 + -7*q^1*x1
Angle Contribution: Multivariable Polynomial P(q, x1):
-1*q^1*x1^2 + -1*q^0*x1^3 + -7*q^1*x1^3
==========================





Angle: 0, 0, 0, 2, 0, 0, 0, 0, 2
Relation type: 2
i: -1
j: 0
ip: -1
jp: 0
Crossing Factor: Multivariable Polynomial P(q, x1):
1*q^0
Relation type: 3
i: 0
j: -1
ip: 0
jp: -1
Crossing Factor: Multivariable Polynomial P(q, x1):
1*q^0
Relation type: 2
i: -1
j: 0
ip: -1
jp: 0
Crossing Factor: Multivariable Polynomial P(q, x1):
1*q^0
Relation type: 4
i: -1
j: 0
ip: 0
jp: -1
Crossing Factor: Multivariable Polynomial P(q, x1):
1*q^0
Relation type: 4
i: 0
j: -1
ip: -3
jp: 2
Crossing Factor: Multivariable Polynomial P(q, x1):
1*q^3
Relation type: 3
i: 0
j: -3
ip: 0
jp: -3
Crossing Factor: Multivariable Polynomial P(q, x1):
1*q^0
Relation type: 2
i: -3
j: 2
ip: -1
jp: 0
Crossing Factor: Multivariable Polynomial P(q, x1):
1*q^0
Relation type: 2
i: -1
j: 0
ip: -1
jp: 0
Crossing Factor: Multivariable Polynomial P(q, x1):
1*q^0
Relation type: 2
i: -1
j: 0
ip: -1
jp: 0
Crossing Factor: Multivariable Polynomial P(q, x1):
1*q^0
Angle result: Multivariable Polynomial P(q, x1):
1*q^3
Angle Contribution: Multivariable Polynomial P(q, x1):
1*q^0*x1^3
==========================





Angle: 0, 0, 0, 3, 0, 0, 0, 0, 3
Relation type: 2
i: -1
j: 0
ip: -1
jp: 0
Crossing Factor: Multivariable Polynomial P(q, x1):
0
Relation type: 3
i: 0
j: -1
ip: 0
jp: -1
Crossing Factor: Multivariable Polynomial P(q, x1):
0
Relation type: 2
i: -1
j: 0
ip: -1
jp: 0
Crossing Factor: Multivariable Polynomial P(q, x1):
0
Relation type: 4
i: -1
j: 0
ip: 0
jp: -1
Crossing Factor: Multivariable Polynomial P(q, x1):
0
Relation type: 4
i: 0
j: -1
ip: -4
jp: 3
Crossing Factor: Multivariable Polynomial P(q, x1):
0
Relation type: 3
i: 0
j: -4
ip: 0
jp: -4
Crossing Factor: Multivariable Polynomial P(q, x1):
0
Relation type: 2
i: -4
j: 3
ip: -1
jp: 0
Crossing Factor: Multivariable Polynomial P(q, x1):
0
Relation type: 2
i: -1
j: 0
ip: -1
jp: 0
Crossing Factor: Multivariable Polynomial P(q, x1):
0
Relation type: 2
i: -1
j: 0
ip: -1
jp: 0
Crossing Factor: Multivariable Polynomial P(q, x1):
0
Angle result: Multivariable Polynomial P(q, x1):
0
Angle Contribution: Multivariable Polynomial P(q, x1):
0
==========================





Angle: 0, 0, 0, 0, 0, 0, 1, 0, 0
Relation type: 2
i: -1
j: 0
ip: -2
jp: 1
Crossing Factor: Multivariable Polynomial P(q, x1):
-1*q^-1 + -1*q^-2*x1 + -1*q^-1*x1
Relation type: 3
i: 1
j: -1
ip: 1
jp: -1
Crossing Factor: Multivariable Polynomial P(q, x1):
-1*q^1 + -1*q^1*x1 + -1*q^2*x1
Relation type: 2
i: -2
j: 1
ip: -1
jp: 0
Crossing Factor: Multivariable Polynomial P(q, x1):
1*q^0 + 1*q^0*x1 + 1*q^1*x1
Relation type: 4
i: -1
j: 0
ip: 0
jp: -1
Crossing Factor: Multivariable Polynomial P(q, x1):
1*q^0
Relation type: 4
i: 0
j: -1
ip: -1
jp: 0
Crossing Factor: Multivariable Polynomial P(q, x1):
1*q^0
Relation type: 3
i: 0
j: -1
ip: 0
jp: -1
Crossing Factor: Multivariable Polynomial P(q, x1):
1*q^0 + 1*q^0*x1
Relation type: 2
i: -1
j: 0
ip: -1
jp: 0
Crossing Factor: Multivariable Polynomial P(q, x1):
1*q^0 + 1*q^0*x1
Relation type: 2
i: -1
j: 0
ip: -1
jp: 0
Crossing Factor: Multivariable Polynomial P(q, x1):
1*q^0 + 1*q^0*x1
Relation type: 2
i: -1
j: 0
ip: -1
jp: 0
Crossing Factor: Multivariable Polynomial P(q, x1):
1*q^0 + 1*q^0*x1
Angle result: Multivariable Polynomial P(q, x1):
1*q^0 + 1*q^-1*x1 + 7*q^0*x1 + 2*q^1*x1
Angle Contribution: Multivariable Polynomial P(q, x1):
-1*q^1*x1^2 + -1*q^0*x1^3 + -7*q^1*x1^3 + -2*q^2*x1^3
==========================





Angle: 0, 0, 0, 1, 0, 0, 1, 0, 1
Relation type: 2
i: -1
j: 0
ip: -2
jp: 1
Crossing Factor: Multivariable Polynomial P(q, x1):
-1*q^-1
Relation type: 3
i: 1
j: -1
ip: 1
jp: -1
Crossing Factor: Multivariable Polynomial P(q, x1):
-1*q^1
Relation type: 2
i: -2
j: 1
ip: -1
jp: 0
Crossing Factor: Multivariable Polynomial P(q, x1):
1*q^0
Relation type: 4
i: -1
j: 0
ip: 0
jp: -1
Crossing Factor: Multivariable Polynomial P(q, x1):
1*q^0
Relation type: 4
i: 0
j: -1
ip: -2
jp: 1
Crossing Factor: Multivariable Polynomial P(q, x1):
-1*q^1
Relation type: 3
i: 0
j: -2
ip: 0
jp: -2
Crossing Factor: Multivariable Polynomial P(q, x1):
1*q^0
Relation type: 2
i: -2
j: 1
ip: -1
jp: 0
Crossing Factor: Multivariable Polynomial P(q, x1):
1*q^0
Relation type: 2
i: -1
j: 0
ip: -1
jp: 0
Crossing Factor: Multivariable Polynomial P(q, x1):
1*q^0
Relation type: 2
i: -1
j: 0
ip: -1
jp: 0
Crossing Factor: Multivariable Polynomial P(q, x1):
1*q^0
Angle result: Multivariable Polynomial P(q, x1):
-1*q^1
Angle Contribution: Multivariable Polynomial P(q, x1):
1*q^1*x1^3
==========================





Angle: 0, 0, 0, 0, 0, 0, 1, 1, 0
Relation type: 2
i: -1
j: 1
ip: -1
jp: 1
Crossing Factor: Multivariable Polynomial P(q, x1):
-1*q^-1
Relation type: 3
i: 1
j: -1
ip: 1
jp: -1
Crossing Factor: Multivariable Polynomial P(q, x1):
-1*q^1
Relation type: 2
i: -1
j: 1
ip: -1
jp: 1
Crossing Factor: Multivariable Polynomial P(q, x1):
-1*q^-1
Relation type: 4
i: -1
j: 0
ip: 0
jp: -1
Crossing Factor: Multivariable Polynomial P(q, x1):
1*q^0
Relation type: 4
i: 0
j: -1
ip: -1
jp: 0
Crossing Factor: Multivariable Polynomial P(q, x1):
1*q^0
Relation type: 3
i: 1
j: -1
ip: 1
jp: -1
Crossing Factor: Multivariable Polynomial P(q, x1):
-1*q^1
Relation type: 2
i: -1
j: 0
ip: -1
jp: 0
Crossing Factor: Multivariable Polynomial P(q, x1):
1*q^0
Relation type: 2
i: -1
j: 0
ip: -1
jp: 0
Crossing Factor: Multivariable Polynomial P(q, x1):
1*q^0
Relation type: 2
i: -1
j: 0
ip: -1
jp: 0
Crossing Factor: Multivariable Polynomial P(q, x1):
1*q^0
Angle result: Multivariable Polynomial P(q, x1):
1*q^0
Angle Contribution: Multivariable Polynomial P(q, x1):
1*q^2*x1^3
==========================





Angle: 0, 0, 0, 0, 1, 0, 0, 0, 0
Relation type: 2
i: -1
j: 0
ip: -1
jp: 0
Crossing Factor: Multivariable Polynomial P(q, x1):
1*q^0 + 1*q^0*x1
Relation type: 3
i: 0
j: -1
ip: 0
jp: -1
Crossing Factor: Multivariable Polynomial P(q, x1):
1*q^0 + 1*q^0*x1
Relation type: 2
i: -1
j: 0
ip: -1
jp: 0
Crossing Factor: Multivariable Polynomial P(q, x1):
1*q^0 + 1*q^0*x1
Relation type: 4
i: -1
j: 0
ip: 0
jp: -1
Crossing Factor: Multivariable Polynomial P(q, x1):
1*q^0
Relation type: 4
i: 0
j: -1
ip: -1
jp: 0
Crossing Factor: Multivariable Polynomial P(q, x1):
1*q^0
Relation type: 3
i: 0
j: -1
ip: 0
jp: -1
Crossing Factor: Multivariable Polynomial P(q, x1):
1*q^0 + 1*q^0*x1
Relation type: 2
i: -1
j: 0
ip: -2
jp: 1
Crossing Factor: Multivariable Polynomial P(q, x1):
-1*q^-1 + -1*q^-2*x1 + -1*q^-1*x1
Relation type: 2
i: -2
j: 1
ip: -1
jp: 0
Crossing Factor: Multivariable Polynomial P(q, x1):
1*q^0 + 1*q^0*x1 + 1*q^1*x1
Relation type: 2
i: -1
j: 0
ip: -1
jp: 0
Crossing Factor: Multivariable Polynomial P(q, x1):
1*q^0 + 1*q^0*x1
Angle result: Multivariable Polynomial P(q, x1):
-1*q^-1 + -1*q^-2*x1 + -7*q^-1*x1 + -1*q^0*x1
Angle Contribution: Multivariable Polynomial P(q, x1):
-1*q^1*x1^2 + -1*q^0*x1^3 + -7*q^1*x1^3 + -1*q^2*x1^3
==========================





Angle: 0, 0, 0, 1, 1, 0, 0, 0, 1
Relation type: 2
i: -1
j: 0
ip: -1
jp: 0
Crossing Factor: Multivariable Polynomial P(q, x1):
1*q^0
Relation type: 3
i: 0
j: -1
ip: 0
jp: -1
Crossing Factor: Multivariable Polynomial P(q, x1):
1*q^0
Relation type: 2
i: -1
j: 0
ip: -1
jp: 0
Crossing Factor: Multivariable Polynomial P(q, x1):
1*q^0
Relation type: 4
i: -1
j: 0
ip: 0
jp: -1
Crossing Factor: Multivariable Polynomial P(q, x1):
1*q^0
Relation type: 4
i: 0
j: -1
ip: -2
jp: 1
Crossing Factor: Multivariable Polynomial P(q, x1):
-1*q^1
Relation type: 3
i: 0
j: -2
ip: 0
jp: -2
Crossing Factor: Multivariable Polynomial P(q, x1):
1*q^0
Relation type: 2
i: -2
j: 1
ip: -2
jp: 1
Crossing Factor: Multivariable Polynomial P(q, x1):
-1*q^-2 + -1*q^-1
Relation type: 2
i: -2
j: 1
ip: -1
jp: 0
Crossing Factor: Multivariable Polynomial P(q, x1):
1*q^0
Relation type: 2
i: -1
j: 0
ip: -1
jp: 0
Crossing Factor: Multivariable Polynomial P(q, x1):
1*q^0
Angle result: Multivariable Polynomial P(q, x1):
1*q^-1 + 1*q^0
Angle Contribution: Multivariable Polynomial P(q, x1):
1*q^1*x1^3 + 1*q^2*x1^3
==========================





Angle: 0, 1, 0, 0, 0, 0, 0, 0, 0
Relation type: 2
i: -1
j: 0
ip: -1
jp: 0
Crossing Factor: Multivariable Polynomial P(q, x1):
1*q^0 + 1*q^0*x1
Relation type: 3
i: 0
j: -2
ip: 0
jp: -2
Crossing Factor: Multivariable Polynomial P(q, x1):
1*q^0 + 1*q^-1*x1 + 1*q^0*x1
Relation type: 2
i: -1
j: 0
ip: -1
jp: 0
Crossing Factor: Multivariable Polynomial P(q, x1):
1*q^0 + 1*q^0*x1
Relation type: 4
i: -2
j: 1
ip: 0
jp: -1
Crossing Factor: Multivariable Polynomial P(q, x1):
1*q^0 + -1*q^-1*x1
Relation type: 4
i: 0
j: -1
ip: -1
jp: 0
Crossing Factor: Multivariable Polynomial P(q, x1):
1*q^0
Relation type: 3
i: 0
j: -1
ip: 0
jp: -1
Crossing Factor: Multivariable Polynomial P(q, x1):
1*q^0 + 1*q^0*x1
Relation type: 2
i: -1
j: 0
ip: -1
jp: 0
Crossing Factor: Multivariable Polynomial P(q, x1):
1*q^0 + 1*q^0*x1
Relation type: 2
i: -1
j: 0
ip: -1
jp: 0
Crossing Factor: Multivariable Polynomial P(q, x1):
1*q^0 + 1*q^0*x1
Relation type: 2
i: -1
j: 0
ip: -2
jp: 1
Crossing Factor: Multivariable Polynomial P(q, x1):
-1*q^-1 + -1*q^-2*x1 + -1*q^-1*x1
Angle result: Multivariable Polynomial P(q, x1):
-1*q^-1 + -1*q^-2*x1 + -7*q^-1*x1
Angle Contribution: Multivariable Polynomial P(q, x1):
-1*q^1*x1^2 + -1*q^0*x1^3 + -7*q^1*x1^3
==========================





Angle: 0, 1, 0, 1, 0, 0, 0, 0, 0
Relation type: 2
i: -1
j: 1
ip: -1
jp: 1
Crossing Factor: Multivariable Polynomial P(q, x1):
-1*q^-1
Relation type: 3
i: 1
j: -2
ip: 0
jp: -1
Crossing Factor: Multivariable Polynomial P(q, x1):
1*q^0
Relation type: 2
i: -1
j: 0
ip: -1
jp: 0
Crossing Factor: Multivariable Polynomial P(q, x1):
1*q^0
Relation type: 4
i: -1
j: 1
ip: 1
jp: -1
Crossing Factor: Multivariable Polynomial P(q, x1):
1*q^0
Relation type: 4
i: 1
j: -1
ip: -1
jp: 1
Crossing Factor: Multivariable Polynomial P(q, x1):
1*q^0
Relation type: 3
i: 0
j: -1
ip: 1
jp: -2
Crossing Factor: Multivariable Polynomial P(q, x1):
-1*q^1
Relation type: 2
i: -2
j: 1
ip: -1
jp: 0
Crossing Factor: Multivariable Polynomial P(q, x1):
1*q^0
Relation type: 2
i: -1
j: 0
ip: -1
jp: 0
Crossing Factor: Multivariable Polynomial P(q, x1):
1*q^0
Relation type: 2
i: -1
j: 0
ip: -2
jp: 1
Crossing Factor: Multivariable Polynomial P(q, x1):
-1*q^-1
Angle result: Multivariable Polynomial P(q, x1):
-1*q^-1
Angle Contribution: Multivariable Polynomial P(q, x1):
-1*q^2*x1^3
==========================





Angle: 0, 1, 0, 1, 0, 0, 0, 0, 1
Relation type: 2
i: -1
j: 0
ip: -1
jp: 0
Crossing Factor: Multivariable Polynomial P(q, x1):
1*q^0
Relation type: 3
i: 0
j: -2
ip: 0
jp: -2
Crossing Factor: Multivariable Polynomial P(q, x1):
1*q^0
Relation type: 2
i: -1
j: 0
ip: -1
jp: 0
Crossing Factor: Multivariable Polynomial P(q, x1):
1*q^0
Relation type: 4
i: -2
j: 1
ip: 0
jp: -1
Crossing Factor: Multivariable Polynomial P(q, x1):
1*q^0
Relation type: 4
i: 0
j: -1
ip: -2
jp: 1
Crossing Factor: Multivariable Polynomial P(q, x1):
-1*q^1
Relation type: 3
i: 0
j: -2
ip: 0
jp: -2
Crossing Factor: Multivariable Polynomial P(q, x1):
1*q^0
Relation type: 2
i: -2
j: 1
ip: -1
jp: 0
Crossing Factor: Multivariable Polynomial P(q, x1):
1*q^0
Relation type: 2
i: -1
j: 0
ip: -1
jp: 0
Crossing Factor: Multivariable Polynomial P(q, x1):
1*q^0
Relation type: 2
i: -1
j: 0
ip: -2
jp: 1
Crossing Factor: Multivariable Polynomial P(q, x1):
-1*q^-1
Angle result: Multivariable Polynomial P(q, x1):
1*q^0
Angle Contribution: Multivariable Polynomial P(q, x1):
1*q^1*x1^3
==========================





Angle: 0, 1, 0, 2, 0, 0, 0, 0, 1
Relation type: 2
i: -1
j: 1
ip: -1
jp: 1
Crossing Factor: Multivariable Polynomial P(q, x1):
0
Relation type: 3
i: 1
j: -2
ip: 0
jp: -1
Crossing Factor: Multivariable Polynomial P(q, x1):
0
Relation type: 2
i: -1
j: 0
ip: -1
jp: 0
Crossing Factor: Multivariable Polynomial P(q, x1):
0
Relation type: 4
i: -1
j: 1
ip: 1
jp: -1
Crossing Factor: Multivariable Polynomial P(q, x1):
0
Relation type: 4
i: 1
j: -1
ip: -2
jp: 2
Crossing Factor: Multivariable Polynomial P(q, x1):
0
Relation type: 3
i: 0
j: -2
ip: 1
jp: -3
Crossing Factor: Multivariable Polynomial P(q, x1):
0
Relation type: 2
i: -3
j: 2
ip: -1
jp: 0
Crossing Factor: Multivariable Polynomial P(q, x1):
0
Relation type: 2
i: -1
j: 0
ip: -1
jp: 0
Crossing Factor: Multivariable Polynomial P(q, x1):
0
Relation type: 2
i: -1
j: 0
ip: -2
jp: 1
Crossing Factor: Multivariable Polynomial P(q, x1):
0
Angle result: Multivariable Polynomial P(q, x1):
0
Angle Contribution: Multivariable Polynomial P(q, x1):
0
==========================





Angle: 1, 0, 0, 0, 0, 0, 0, 0, 0
Relation type: 2
i: -1
j: 1
ip: -1
jp: 1
Crossing Factor: Multivariable Polynomial P(q, x1):
-1*q^-1
Relation type: 3
i: 1
j: -2
ip: 0
jp: -1
Crossing Factor: Multivariable Polynomial P(q, x1):
1*q^0
Relation type: 2
i: -1
j: 0
ip: -1
jp: 0
Crossing Factor: Multivariable Polynomial P(q, x1):
1*q^0
Relation type: 4
i: -1
j: 0
ip: 0
jp: -1
Crossing Factor: Multivariable Polynomial P(q, x1):
1*q^0
Relation type: 4
i: 0
j: -1
ip: -1
jp: 0
Crossing Factor: Multivariable Polynomial P(q, x1):
1*q^0
Relation type: 3
i: 0
j: -1
ip: 1
jp: -2
Crossing Factor: Multivariable Polynomial P(q, x1):
-1*q^1
Relation type: 2
i: -2
j: 0
ip: -2
jp: 0
Crossing Factor: Multivariable Polynomial P(q, x1):
1*q^0
Relation type: 2
i: -2
j: 0
ip: -2
jp: 0
Crossing Factor: Multivariable Polynomial P(q, x1):
1*q^0
Relation type: 2
i: -2
j: 0
ip: -2
jp: 0
Crossing Factor: Multivariable Polynomial P(q, x1):
1*q^0
Angle result: Multivariable Polynomial P(q, x1):
1*q^0
Angle Contribution: Multivariable Polynomial P(q, x1):
1*q^2*x1^3
==========================





Angle: 1, 0, 0, 1, 0, 0, 0, 0, 1
Relation type: 2
i: -1
j: 1
ip: -1
jp: 1
Crossing Factor: Multivariable Polynomial P(q, x1):
0
Relation type: 3
i: 1
j: -2
ip: 0
jp: -1
Crossing Factor: Multivariable Polynomial P(q, x1):
0
Relation type: 2
i: -1
j: 0
ip: -1
jp: 0
Crossing Factor: Multivariable Polynomial P(q, x1):
0
Relation type: 4
i: -1
j: 0
ip: 0
jp: -1
Crossing Factor: Multivariable Polynomial P(q, x1):
0
Relation type: 4
i: 0
j: -1
ip: -2
jp: 1
Crossing Factor: Multivariable Polynomial P(q, x1):
0
Relation type: 3
i: 0
j: -2
ip: 1
jp: -3
Crossing Factor: Multivariable Polynomial P(q, x1):
0
Relation type: 2
i: -3
j: 1
ip: -2
jp: 0
Crossing Factor: Multivariable Polynomial P(q, x1):
0
Relation type: 2
i: -2
j: 0
ip: -2
jp: 0
Crossing Factor: Multivariable Polynomial P(q, x1):
0
Relation type: 2
i: -2
j: 0
ip: -2
jp: 0
Crossing Factor: Multivariable Polynomial P(q, x1):
0
Angle result: Multivariable Polynomial P(q, x1):
0
Angle Contribution: Multivariable Polynomial P(q, x1):
0
==========================





All points processed!
Combining results from 1 engines...
✓ Computation completed successfully!
⏱ Computation time: 2 ms

📄 Results written to: out.json
📊 Result contains 4 non-zero terms
